[TITLE]
;;Project Title/Notes

[OPTIONS]
;;Option             Value
FLOW_UNITS           CFS
INFILTRATION         MODIFIED_GREEN_AMPT
FLOW_ROUTING         DYNWAVE
LINK_OFFSETS         DEPTH
MIN_SLOPE            0
ALLOW_PONDING        NO
SKIP_STEADY_STATE    NO

START_DATE           01/01/2004
START_TIME           01:00:00
REPORT_START_DATE    01/01/2004
REPORT_START_TIME    01:00:00
END_DATE             12/31/2004
END_TIME             23:00:00
SWEEP_START          01/01
SWEEP_END            12/31
DRY_DAYS             0
REPORT_STEP          00:01:00
WET_STEP             00:01:00
DRY_STEP             01:00:00
ROUTING_STEP         0:00:30 
RULE_STEP            00:00:00

INERTIAL_DAMPING     PARTIAL
NORMAL_FLOW_LIMITED  SLOPE
FORCE_MAIN_EQUATION  H-W
VARIABLE_STEP        0.75
LENGTHENING_STEP     0
MIN_SURFAREA         12.566
MAX_TRIALS           8
HEAD_TOLERANCE       0.005
SYS_FLOW_TOL         5
LAT_FLOW_TOL         5
MINIMUM_STEP         0.5
THREADS              1

[EVAPORATION]
;;Data Source    Parameters
;;-------------- ----------------
MONTHLY          0.112933333 0.1265 0.147451613 0.161  0.158967742 0.1547 0.160774194 0.152870968 0.1435 0.124419355 0.1092 0.105903226
DRY_ONLY         NO

[RAINGAGES]
;;Name           Format    Interval SCF      Source    
;;-------------- --------- ------ ------ ----------
RainGage         INTENSITY 1:00     1.0      TIMESERIES SanJuan         

[SUBCATCHMENTS]
;;Name           Rain Gage        Outlet           Area     %Imperv  Width    %Slope   CurbLen  SnowPack        
;;-------------- ---------------- ---------------- -------- -------- -------- -------- -------- ----------------
S1               RainGage         J1               67.42    15       11747    20       0                        
S2               RainGage         J11              24.87    18       4333     20       0                        
S3               RainGage         J12              20.69    26       3605     20       0                        
S4               RainGage         J13              38.40    26       6691     20       0                        
S5               RainGage         J5               9.76     36       1701     20       0                        
S6               RainGage         J9               34.30    36       5976     20       0                        
S7               RainGage         J9               62.31    36       10857    20       0                        
S8               RainGage         J19              21.74    36       3788     20       0                        
S9               RainGage         J18              20.38    36       3551     20       0                        
S10              RainGage         O3               40.16    36       6997     20       0                        
S11              RainGage         O3               30.14    36       5252     20       0                        
S12              RainGage         O3               25.92    49       4516     20       0                        
S13              RainGage         O3               14.81    49       2580     20       0                        
S14              RainGage         O3               9.78     49       1704     8        0                        
S15              RainGage         O3               13.58    66       2366     4        0                        
S16              RainGage         O3               11.30    66       1969     1        0                        
S17              RainGage         J20              9.27     66       1615     1        0                        
S18              RainGage         J21              14.11    66       2459     1        0                        
S19              RainGage         O4               33.17    66       5780     1        0                        
S20              RainGage         O4               42.19    85       7351     1        0                        
S21              RainGage         J27              18.62    85       3244     1        0                        
S22              RainGage         J4               18.77    68       3270     1        0                        
S23              RainGage         J3               20.23    68       3525     1        0                        
S24              RainGage         J2               10.25    85       1786     1        0                        

[SUBAREAS]
;;Subcatchment   N-Imperv   N-Perv     S-Imperv   S-Perv     PctZero    RouteTo    PctRouted 
;;-------------- ---------- ---------- ---------- ---------- ---------- ---------- ----------
S1               0.013      0.41       0.1        0.06       25         OUTLET    
S2               0.013      0.41       0.1        0.06       25         OUTLET    
S3               0.013      0.41       0.1        0.06       25         OUTLET    
S4               0.013      0.41       0.1        0.06       25         OUTLET    
S5               0.013      0.41       0.1        0.06       25         OUTLET    
S6               0.013      0.41       0.1        0.06       25         OUTLET    
S7               0.013      0.41       0.1        0.06       25         OUTLET    
S8               0.013      0.41       0.1        0.06       25         OUTLET    
S9               0.013      0.41       0.1        0.06       25         OUTLET    
S10              0.013      0.41       0.1        0.06       25         OUTLET    
S11              0.013      0.41       0.1        0.06       25         OUTLET    
S12              0.013      0.41       0.1        0.06       25         OUTLET    
S13              0.013      0.41       0.1        0.06       25         OUTLET    
S14              0.013      0.41       0.1        0.06       25         OUTLET    
S15              0.013      0.41       0.1        0.06       25         OUTLET    
S16              0.013      0.41       0.1        0.06       25         OUTLET    
S17              0.013      0.41       0.1        0.06       25         OUTLET    
S18              0.013      0.41       0.1        0.06       25         OUTLET    
S19              0.013      0.41       0.1        0.06       25         OUTLET    
S20              0.013      0.41       0.1        0.06       25         OUTLET    
S21              0.013      0.41       0.1        0.06       25         OUTLET    
S22              0.013      0.41       0.1        0.06       25         OUTLET    
S23              0.013      0.41       0.1        0.06       25         OUTLET    
S24              0.013      0.41       0.1        0.06       25         OUTLET    

[INFILTRATION]
;;Subcatchment   Suction    Ksat       IMD       
;;-------------- ---------- ---------- ----------
S1               10.8       0.0375     4         
S2               10.8       0.0289     4         
S3               10.8       0.0289     4         
S4               10.8       0.0289     4         
S5               11         0.0331     4         
S6               11         0.0331     4         
S7               11         0.0331     4         
S8               11         0.0331     4         
S9               11         0.0331     4         
S10              11         0.0331     4         
S11              11         0.0331     4         
S12              10.6       0.04       4         
S13              10.6       0.04       4         
S14              10.6       0.04       4         
S15              11.3       0.318      4         
S16              11.4       0.318      4         
S17              11.4       0.318      4         
S18              11.3       0.318      4         
S19              11.3       0.318      4         
S20              12.1       0.214      4         
S21              12.1       0.214      4         
S22              12.1       0.214      4         
S23              12.1       0.214      4         
S24              12.1       0.214      4         

[AQUIFERS]
;;Name           Por    WP     FC     Ksat   Kslope Tslope ETu    ETs    Seep   Ebot   Egw    Umc    ETupat 
;;-------------- ------ ------ ------ ------ ------ ------ ------ ------ ------ ------ ------ ------ ------
Aquifer1         0.465  0.21   0.328  0.101  10.0   15.0   0.35   14.0   0.002  -10    2.74   0.30         

[GROUNDWATER]
;;Subcatchment   Aquifer          Node             Esurf  A1     B1     A2     B2     A3     Dsw    Egwt   Ebot   Wgr    Umc   
;;-------------- ---------------- ---------------- ------ ------ ------ ------ ------ ------ ------ ------ ------ ------ ------
S1               Aquifer1         J1               127    0.5    1.0    0      0      0      0      *     
S2               Aquifer1         J24              127    0.5    1.0    0      0      0      0      *     
S3               Aquifer1         J25              127    0.5    1.0    0      0      0      0      *     
S4               Aquifer1         J26              127    0.5    1.0    0      0      0      0      *     
S5               Aquifer1         J5               127    0.5    1.0    0      0      0      0      *     
S6               Aquifer1         J9               127    0.5    1.0    0      0      0      0      *     
S7               Aquifer1         J9               127    0.5    1.0    0      0      0      0      *     
S8               Aquifer1         J19              127    0.5    1.0    0      0      0      0      *     
S9               Aquifer1         J18              127    0.5    1.0    0      0      0      0      *     
S10              Aquifer1         O3               127    0.5    1.0    0      0      0      0      *     
S11              Aquifer1         O3               127    0.5    1.0    0      0      0      0      *     
S12              Aquifer1         O3               127    0.5    1.0    0      0      0      0      *     
S13              Aquifer1         O3               127    0.5    1.0    0      0      0      0      *     
S14              Aquifer1         O3               12     0.5    1.0    0      0      0      0      *     
S15              Aquifer1         O3               4      0.5    1.0    0      0      0      0      *     
S16              Aquifer1         O3               4      0.5    1.0    0      0      0      0      *     
S17              Aquifer1         J20              4      0.5    1.0    0      0      0      0      *     
S18              Aquifer1         J21              4      0.5    1.0    0      0      0      0      *     
S19              Aquifer1         J17              4      0.5    1.0    0      0      0      0      *     
S20              Aquifer1         J10              4      0.5    1.0    0      0      0      0      *     
S21              Aquifer1         J27              4      0.5    1.0    0      0      0      0      *     
S22              Aquifer1         J4               7      0.5    1.0    0      0      0      0      *     
S23              Aquifer1         J3               7      0.5    1.0    0      0      0      0      *     
S24              Aquifer1         J2               16     0.5    1.0    0      0      0      0      *     

[JUNCTIONS]
;;Name           Elevation  MaxDepth   InitDepth  SurDepth   Aponded   
;;-------------- ---------- ---------- ---------- ---------- ----------
J1               83         0          0          0          0         
J2               12         0          0          0          0         
J3               12         0          0          0          0         
J4               12         0          0          0          0         
J5               20         0          0          0          0         
J6               20         0          0          0          0         
J9               63         0          0          0          0         
J10              10         0          0          0          0         
J11              126        0          0          0          0         
J12              126        0          0          0          0         
J13              44         0          0          0          0         
J17              18         0          0          0          0         
J18              208        0          0          0          0         
J19              191        0          0          0          0         
J20              26         0          0          0          0         
J21              26         0          0          0          0         
J24              31         0          0          0          0         
J25              31         0          0          0          0         
J26              31         0          0          0          0         
J27              8          0          0          0          0         

[OUTFALLS]
;;Name           Elevation  Type       Stage Data       Gated    Route To        
;;-------------- ---------- ---------- ---------------- -------- ----------------
O1               0          TIDAL      TidalBounds      NO                       
O2               0          TIDAL      TidalBounds      NO                       
O3               0          TIDAL      TidalBounds      NO                       
O4               0          TIDAL      TidalBounds      NO                       

[CONDUITS]
;;Name           From Node        To Node          Length     Roughness  InOffset   OutOffset  InitFlow   MaxFlow   
;;-------------- ---------------- ---------------- ---------- ---------- ---------- ---------- ---------- ----------
C1               J1               J2               1207.66    0.012      0          0          0          0         
C5               J5               J10              1748.62    0.01       0          0          0          0         
C7               J2               O1               1078.08    0.012      0          0          0          0         
C8               J4               J3               1571.00    0.012      0          0          0          0         
C9               J3               J2               1577.74    0.012      0          0          0          0         
C10              J6               J17              796.48     0.01       0          0          0          0         
C11              J9               J17              1378.18    0.01       0          0          0          0         
C12              J17              O2               1465.58    0.01       0          0          0          0         
C15              J20              J21              1057.85    0.01       0          0          0          0         
C16              J21              J17              814.08     0.01       0          0          0          0         
C17              J19              J21              703.31     0.01       0          0          0          0         
C18              J18              J20              969.59     0.01       0          0          0          0         
45               J11              J24              377.01     0.012      0          0          0          0         
46               J24              J3               387.37     0.01       0          0          0          0         
47               J12              J25              392.05     0.01       0          0          0          0         
48               J25              J3               715.25     0.01       0          0          0          0         
49               J13              J26              567.65     0.012      0          0          0          0         
50               J26              J4               410.33     0.012      0          0          0          0         
51               J10              J27              1278.02    0.01       0          0          0          0         
52               J27              J2               909.23     0.012      0          0          0          0         

[XSECTIONS]
;;Link           Shape        Geom1            Geom2      Geom3      Geom4      Barrels    Culvert   
;;-------------- ------------ ---------------- ---------- ---------- ---------- ---------- ----------
C1               TRAPEZOIDAL  2                4          1          1          1                    
C5               TRAPEZOIDAL  2                4          1          1          1                    
C7               RECT_OPEN    2                3          0          0          1                    
C8               TRAPEZOIDAL  2                4          1          1          1                    
C9               TRAPEZOIDAL  2                4          1          1          1                    
C10              TRAPEZOIDAL  2                4          1          1          1                    
C11              TRAPEZOIDAL  2                4          1          1          1                    
C12              RECT_OPEN    2                3          0          0          1                    
C15              TRAPEZOIDAL  2                4          1          1          1                    
C16              TRAPEZOIDAL  2                4          1          1          1                    
C17              TRAPEZOIDAL  2                4          1          1          1                    
C18              TRAPEZOIDAL  2                4          1          1          1                    
45               TRAPEZOIDAL  2                4          1          1          1                    
46               TRAPEZOIDAL  2                4          1          1          1                    
47               TRAPEZOIDAL  2                4          1          1          1                    
48               TRAPEZOIDAL  2                4          1          1          1                    
49               TRAPEZOIDAL  2                4          1          1          1                    
50               TRAPEZOIDAL  2                4          1          1          1                    
51               TRAPEZOIDAL  2                4          1          1          1                    
52               TRAPEZOIDAL  2                4          1          1          1                    

[INFLOWS]
;;Node           Constituent      Time Series      Type     Mfactor  Sfactor  Baseline Pattern
;;-------------- ---------------- ---------------- -------- -------- -------- -------- --------
J1               FLOW             ""               FLOW     1.0      1.0      0.00    
J2               FLOW             ""               FLOW     1.0      1.0      0.02    
J3               FLOW             ""               FLOW     1.0      1.0      0.02    
J4               FLOW             ""               FLOW     1.0      1.0      0.02    
J5               FLOW             ""               FLOW     1.0      1.0      0.02    
J6               FLOW             ""               FLOW     1.0      1.0      0.02    
J9               FLOW             ""               FLOW     1.0      1.0      0.00    
J10              FLOW             ""               FLOW     1.0      1.0      0.02    
J11              FLOW             ""               FLOW     1.0      1.0      0.00    
J12              FLOW             ""               FLOW     1.0      1.0      0.00    
J13              FLOW             ""               FLOW     1.0      1.0      0.00    
J17              FLOW             ""               FLOW     1.0      1.0      0.02    
J18              FLOW             ""               FLOW     1.0      1.0      0.00    
J19              FLOW             ""               FLOW     1.0      1.0      0.00    
J20              FLOW             ""               FLOW     1.0      1.0      0.02    
J21              FLOW             ""               FLOW     1.0      1.0      0.02    
J24              FLOW             ""               FLOW     1.0      1.0      0.02    
J25              FLOW             ""               FLOW     1.0      1.0      0.02    
J26              FLOW             ""               FLOW     1.0      1.0      0.02    
J27              FLOW             ""               FLOW     1.0      1.0      0.02    

[CURVES]
;;Name           Type       X-Value    Y-Value   
;;-------------- ---------- ---------- ----------
TidalBounds      Tidal      0          1.577173  
TidalBounds                 1          1.592413  
TidalBounds                 2          1.583269  
TidalBounds                 3          1.577173  
TidalBounds                 4          1.571077  
TidalBounds                 5          1.577173  
TidalBounds                 6          1.583269  
TidalBounds                 7          1.592413  
TidalBounds                 8          1.598509  
TidalBounds                 9          1.601557  
TidalBounds                 10         1.607653  
TidalBounds                 11         1.638133  
TidalBounds                 12         1.653373  
TidalBounds                 13         1.644229  
TidalBounds                 14         1.638133  
TidalBounds                 15         1.607653  
TidalBounds                 16         1.592413  
TidalBounds                 17         1.577173  
TidalBounds                 18         1.561933  
TidalBounds                 19         1.546693  
TidalBounds                 20         1.531453  
TidalBounds                 21         1.540597  
TidalBounds                 22         1.546693  
TidalBounds                 23         1.561933  

[TIMESERIES]
;;Name           Date       Time       Value     
;;-------------- ---------- ---------- ----------
5-yr                        0:00       0.96      
5-yr                        0:05       1.44      
5-yr                        0:10       1.44      
5-yr                        0:15       2.4       
5-yr                        0:20       3.36      
5-yr                        0:25       6.24      
5-yr                        0:30       12.48     
5-yr                        0:35       4.8       
5-yr                        0:40       2.88      
5-yr                        0:45       1.92      
5-yr                        0:50       1.44      
5-yr                        0:55       1.44      
5-yr                        1:00       0.96      
5-yr                        1:05       0.96      
5-yr                        1:10       0.96      
5-yr                        1:15       0.48      
5-yr                        1:20       0.48      
5-yr                        1:25       0.48      
5-yr                        1:30       0.48      
5-yr                        1:35       0.48      
5-yr                        1:40       0.48      
5-yr                        1:45       0.48      
5-yr                        1:50       0.48      
5-yr                        1:55       0.48      
;
10-yr                       0:00       1.08      
10-yr                       0:05       1.62      
10-yr                       0:10       1.62      
10-yr                       0:15       2.7       
10-yr                       0:20       3.78      
10-yr                       0:25       7.02      
10-yr                       0:30       14.04     
10-yr                       0:35       5.4       
10-yr                       0:40       3.24      
10-yr                       0:45       2.16      
10-yr                       0:50       1.62      
10-yr                       0:55       1.62      
10-yr                       1:00       1.08      
10-yr                       1:05       1.08      
10-yr                       1:10       1.08      
10-yr                       1:15       0.54      
10-yr                       1:20       0.54      
10-yr                       1:25       0.54      
10-yr                       1:30       0.54      
10-yr                       1:35       0.54      
10-yr                       1:40       0.54      
10-yr                       1:45       0.54      
10-yr                       1:50       0.54      
10-yr                       1:55       0.54      
;
50-yr                       0:00       1.2       
50-yr                       0:05       1.8       
50-yr                       0:10       1.8       
50-yr                       0:15       3         
50-yr                       0:20       4.2       
50-yr                       0:25       7.8       
50-yr                       0:30       15.6      
50-yr                       0:35       6         
50-yr                       0:40       3.6       
50-yr                       0:45       2.4       
50-yr                       0:50       1.8       
50-yr                       0:55       1.8       
50-yr                       1:00       1.2       
50-yr                       1:05       1.2       
50-yr                       1:10       1.2       
50-yr                       1:15       0.6       
50-yr                       1:20       0.6       
50-yr                       1:25       0.6       
50-yr                       1:30       0.6       
50-yr                       1:35       0.6       
50-yr                       1:40       0.6       
50-yr                       1:45       0.6       
50-yr                       1:50       0.6       
50-yr                       1:55       0.6       
;
PHL              FILE "C:\Users\msc94\Documents\GitHub\GrandAnseBeach_SWMM\ModelsData\RainData\Philly_QCLCD_hrly_2014Prc_Modified.dat"
;
SanJuan          FILE "C:\Users\msc94\Documents\GitHub\GrandAnseBeach_SWMM\ModelsData\RainData\SanJuan.dat"

[PATTERNS]
;;Name           Type       Multipliers
;;-------------- ---------- -----------
Tides            HOURLY     0.8   0.85  0.82  0.8   0.78  0.8  
Tides                       0.82  0.85  0.87  0.88  0.9   1    
Tides                       1.05  1.02  1     0.9   0.85  0.8  
Tides                       0.75  0.7   0.65  0.68  0.7   0.75 

[REPORT]
;;Reporting Options
SUBCATCHMENTS ALL
NODES ALL
LINKS ALL

[TAGS]

[MAP]
DIMENSIONS 0.000 0.000 16732.284 10826.772
Units      Feet

[COORDINATES]
;;Node           X-Coord            Y-Coord           
;;-------------- ------------------ ------------------
J1               6880.114           2110.409          
J2               6480.510           3221.808          
J3               8043.218           3131.170          
J4               9564.954           3521.511          
J5               10224.386          4206.140          
J6               10601.427          4757.786          
J9               12180.330          3894.461          
J10              8516.513           3830.854          
J11              8028.976           2435.087          
J12              8915.598           2584.939          
J13              9847.271           2632.908          
J17              11359.787          5001.239          
J18              12799.249          6293.764          
J19              12362.182          5681.870          
J20              11962.578          6705.855          
J21              11662.875          5756.796          
J24              7878.276           2780.668          
J25              8678.932           2897.502          
J26              9819.781           3199.896          
J27              7263.436           3579.602          
O1               5743.740           3983.553          
O2               10801.229          6356.202          
O3               11243.186          8139.007          
O4               9665.859           5728.851          

[VERTICES]
;;Link           X-Coord            Y-Coord           
;;-------------- ------------------ ------------------
C1               6505.486           2797.228          
C7               6155.832           3421.610          
C9               7029.966           3284.246          
C11              11825.214          4345.694          
C15              11612.925          6181.375          
C18              12387.158          6643.417          
48               8486.500           3086.498          
51               7505.146           3627.308          
52               6754.573           3506.453          

[Polygons]
;;Subcatchment   X-Coord            Y-Coord           
;;-------------- ------------------ ------------------
S1               5117.577           3751.617          
S1               5117.577           3751.617          
S1               5293.422           3746.122          
S1               5612.142           3746.122          
S1               5892.395           3619.733          
S1               5974.823           3531.810          
S1               6106.707           3361.460          
S1               6293.542           3174.624          
S1               6540.825           3130.663          
S1               6656.223           3141.653          
S1               6727.661           3075.711          
S1               6788.107           3009.769          
S1               6865.040           2921.847          
S1               6952.963           2789.963          
S1               7051.876           2713.030          
S1               7145.293           2647.088          
S1               7354.110           2531.690          
S1               7507.974           2454.757          
S1               7656.344           2306.388          
S1               7722.286           2119.552          
S1               7535.450           2031.629          
S1               7073.856           1262.306          
S1               6579.291           1366.714          
S1               6419.931           1328.248          
S1               6375.970           1575.531          
S1               6332.009           1690.929          
S1               6227.600           1806.328          
S1               6101.212           1905.241          
S1               5958.337           2059.105          
S1               5766.006           2147.028          
S1               5722.045           2240.446          
S1               5672.588           2344.854          
S1               5623.132           2449.262          
S1               5601.151           2575.651          
S1               5606.646           2691.050          
S1               5590.161           2817.438          
S1               5579.171           3064.721          
S1               5496.743           3180.120          